%mem=60GB
%nprocshared=28
# opt=(modredundant,tight,maxcyc=400) cbs-qb3 nosymm geom=connectivity
ccsd=maxcyc=1000

Title Card Required

0 2
 C                 -4.16420700    0.25630400   -0.06189300
 H                 -4.31314400   -0.80671500   -0.17745900
 C                 -3.66800900    0.89395600    1.18432600
 H                 -4.04099300    1.92440900    1.24112500
 H                 -4.07574400    0.35008100    2.04280100
 C                 -2.13625700    0.96781400    1.33382100
 H                 -1.69678400    1.39323400    0.43196900
 C                 -1.69668500    1.73770300    2.56814400
 H                 -2.10627200    1.28952100    3.47634300
 H                 -0.60933500    1.75319300    2.65164900
 H                 -2.05174000    2.77103800    2.50019400
 Cl                -4.06783100    1.12730300   -1.55221700
 Cl                -1.44756400   -0.73413900    1.40244500

 1 2 1.0 3 1.0 12 1.0
 2
 3 4 1.0 5 1.0 6 1.0
 4
 5
 6 7 1.0 8 1.0 13 1.0
 7
 8 9 1.0 10 1.0 11 1.0
 9
 10
 11
 12
 13

D 12 1 3 4 S 24 15.000000